  
       XFOIL         Version 6.99
  
 Calculated polar for: NACA 0018                                       
  
 1 1 Reynolds number fixed          Mach number fixed         
  
 xtrf =   1.000 (top)        1.000 (bottom)  
 Mach =   0.000     Re =     1.000 e 6     Ncrit =   9.000  9.000
  
   alpha    CL        CD       CDp       CM     Top_Xtr  Bot_Xtr  Top_Itr  Bot_Itr
  ------ -------- --------- --------- -------- -------- -------- -------- --------
 -25.000  -1.2102   0.17908   0.16447   0.0252   1.0000   0.0281   1.0000  97.4803
 -24.000  -1.2183   0.16300   0.13869   0.0133   1.0000   0.0297   1.0000  97.9246
 -23.000  -1.2298   0.14678   0.11603   0.0025   1.0000   0.0314   1.0000  98.3982
 -22.000  -1.2530   0.12874   0.09411  -0.0080   1.0000   0.0332   1.0000  98.8564
 -21.000  -1.2938   0.10870   0.07328  -0.0179   1.0000   0.0348   1.0000  99.2671
 -20.000  -1.3433   0.08809   0.05477  -0.0266   1.0000   0.0363   1.0000  99.6538
 -19.000  -1.3782   0.07036   0.04052  -0.0330   1.0000   0.0379   1.0000 100.0356
 -18.000  -1.4142   0.05350   0.02781  -0.0378   1.0000   0.0401   1.0000 100.5359
 -17.000  -1.4135   0.04209   0.01991  -0.0397   1.0000   0.0426   1.0000 101.1051
 -16.000  -1.4001   0.03312   0.01408  -0.0394   1.0000   0.0459   1.0000 101.8044
 -15.000  -1.3689   0.02679   0.01027  -0.0371   1.0000   0.0501   1.0000 102.6528
 -14.000  -1.3243   0.02236   0.00783  -0.0331   1.0000   0.0552   1.0000 103.6203
 -13.000  -1.2704   0.01924   0.00627  -0.0278   1.0000   0.0619   1.0000 104.7835
 -12.000  -1.2146   0.01702   0.00530  -0.0207   1.0000   0.0699   1.0000 106.0519
 -11.000  -1.2076   0.01576   0.00515  -0.0022   1.0000   0.0781   1.0000 107.2232
 -10.000  -1.1008   0.01412   0.00434  -0.0031   0.9938   0.0943   1.5998 109.2705
 -10.000  -1.1008   0.01412   0.00434  -0.0031   0.9938   0.0943   1.5997 109.2707
  -9.000  -0.9714   0.01256   0.00352  -0.0082   0.9856   0.1183   2.3096 111.7955
  -8.000  -0.8445   0.01115   0.00280  -0.0124   0.9732   0.1503   3.2333 114.5446
  -7.000  -0.7411   0.01004   0.00228  -0.0108   0.9457   0.1866   5.0283 117.1765
  -6.000  -0.6426   0.00915   0.00187  -0.0079   0.9069   0.2293   7.2094 119.8847
  -5.000  -0.5396   0.00843   0.00153  -0.0058   0.8594   0.2774   9.6359 122.6682
  -4.000  -0.4338   0.00791   0.00126  -0.0043   0.8042   0.3289  12.3248 125.4608
  -3.000  -0.3264   0.00755   0.00107  -0.0030   0.7427   0.3823  15.2591 128.2405
  -2.000  -0.2180   0.00733   0.00095  -0.0019   0.6791   0.4375  18.2805 131.0276
  -1.000  -0.1092   0.00719   0.00088  -0.0009   0.6161   0.4955  21.2835 133.8887
   0.000  -0.0000   0.00715   0.00085   0.0000   0.5550   0.5549  24.2219 136.7751
   1.000   0.1092   0.00719   0.00088   0.0009   0.4955   0.6161  27.1117 139.7160
   2.000   0.2180   0.00733   0.00095   0.0019   0.4374   0.6793  29.9779 142.7251
   3.000   0.3265   0.00755   0.00107   0.0030   0.3824   0.7427  32.7586 145.7415
   4.000   0.4338   0.00791   0.00126   0.0043   0.3289   0.8042  35.5407 148.6754
   5.000   0.5397   0.00843   0.00153   0.0058   0.2775   0.8595  38.3306 151.3666
   6.000   0.6427   0.00915   0.00188   0.0078   0.2293   0.9069  41.1139 153.7930
   7.000   0.7413   0.01004   0.00229   0.0107   0.1866   0.9457  43.8255 155.9714
   8.000   0.8447   0.01114   0.00281   0.0123   0.1503   0.9732  46.4552 157.7669
   9.000   0.9717   0.01256   0.00353   0.0082   0.1183   0.9857  49.2095 158.6937
  10.000   1.1012   0.01412   0.00435   0.0031   0.0943   0.9939  51.7328 159.4039
  11.000   1.2076   0.01575   0.00516   0.0022   0.0781   1.0000  53.7750 160.0000
  12.000   1.2153   0.01702   0.00533   0.0206   0.0699   1.0000  54.9517 160.0000
  13.000   1.2717   0.01922   0.00630   0.0276   0.0619   1.0000  56.2213 160.0000
  14.000   1.3259   0.02234   0.00787   0.0328   0.0552   1.0000  57.3858 160.0000
  15.000   1.3710   0.02675   0.01032   0.0367   0.0500   1.0000  58.3607 160.0000
  16.000   1.4027   0.03305   0.01413   0.0391   0.0458   1.0000  59.2055 160.0000
  17.000   1.4162   0.04204   0.02002   0.0394   0.0425   1.0000  59.9068 160.0000
  18.000   1.4177   0.05338   0.02790   0.0374   0.0400   1.0000  60.4759 160.0000
  19.000   1.3812   0.07032   0.04074   0.0325   0.0378   1.0000  60.9786 160.0000
  20.000   1.3474   0.08794   0.05493   0.0262   0.0363   1.0000  61.3575 160.0000
  21.000   1.2974   0.10865   0.07355   0.0175   0.0347   1.0000  61.7448 160.0000
  22.000   1.2567   0.12871   0.09435   0.0076   0.0331   1.0000  62.1527 160.0000
  23.000   1.2329   0.14689   0.11639  -0.0030   0.0314   1.0000  62.6112 160.0000
  24.000   1.2212   0.16323   0.13912  -0.0138   0.0297   1.0000  63.0812 160.0000
  25.000   1.2131   0.17941   0.16493  -0.0257   0.0281   1.0000  63.5258 160.0000
